         102
     First configuration
Cl         0.200000      45.000000      45.000000
Cl         1.029412      45.712958      44.298794
Cl         1.715686      45.944473      45.328590
Cl         2.401961      44.137566      44.493830
Cl         3.088235      45.769970      44.361920
Cl         3.774510      45.462234      45.886758
Cl         4.460784      44.058300      45.336455
Cl         5.147059      45.588310      44.191364
Cl         5.833333      45.991991      45.126307
Cl         6.519608      44.754938      44.030493
Cl         7.205882      45.801830      44.402448
Cl         7.892157      45.692193      44.278287
Cl         8.578431      45.992713      45.120506
Cl         9.264706      44.363528      44.228700
Cl         9.950980      44.014667      44.829357
Cl        10.637255      45.999206      44.960154
Cl        11.323529      44.280573      44.305431
Cl        12.009804      44.177459      44.431294
Cl        12.696078      44.207985      45.610502
Cl        13.382353      45.488841      45.872373
Cl        14.068627      45.114639      44.006593
Cl        14.754902      45.308798      45.951128
Cl        15.441176      44.439153      45.827920
Cl        16.127451      45.936084      44.648222
Cl        16.813725      45.240864      45.970559
Cl        17.500000      44.019252      45.195278
Cl        18.186275      45.859219      45.511608
Cl        18.872549      45.371808      45.928309
Cl        19.558824      44.334877      45.746734
Cl        20.245098      44.002016      44.936531
Cl        20.931373      45.146454      45.989217
Cl        21.617647      44.273944      45.687635
Cl        22.303922      44.533105      45.884313
Cl        22.990196      45.638623      45.769520
Cl        23.676471      45.853480      45.521126
Cl        24.362745      44.449884      45.835088
Cl        25.049020      45.059515      44.001773
Cl        25.735294      44.494927      45.863077
Cl        26.421569      45.785433      44.381053
Cl        27.107843      44.055838      44.670518
Cl        27.794118      45.404193      45.914674
Cl        28.480392      44.127603      45.488798
Cl        29.166667      45.209569      45.977794
Cl        29.852941      45.880718      44.526359
Cl        30.539216      44.158626      45.540453
Cl        31.225490      45.884188      44.532869
Cl        31.911765      45.715760      44.301654
Cl        32.598039      44.178992      45.570916
Cl        33.284314      45.684296      45.729204
Cl        33.970588      45.737302      45.675564
Cl        34.656863      44.580101      44.092429
Cl        35.343137      45.788778      44.385322
Cl        36.029412      44.093578      45.422374
Cl        36.715686      45.185927      45.982564
Cl        37.401961      45.260560      45.965458
Cl        38.088235      45.388292      44.078464
Cl        38.774510      45.911575      45.411134
Cl        39.460784      44.940593      45.998234
Cl        40.147059      44.233797      44.357401
Cl        40.833333      45.642881      44.234034
Cl        41.519608      45.605504      44.204158
Cl        42.205882      44.019541      44.803275
Cl        42.892157      44.678190      44.053196
Cl        43.578431      44.013856      44.834106
Cl        44.264706      45.691115      45.722745
Cl        44.950980      45.925558      45.378607
Cl        45.637255      44.130882      45.494605
Cl        46.323529      44.488130      44.140937
Cl        47.009804      44.019283      45.195435
Cl        47.696078      45.729873      45.683583
Cl        48.382353      44.004055      44.910038
Cl        49.068627      45.986705      45.162522
Cl        49.754902      45.964922      44.737462
Cl        50.441176      45.024365      44.000297
Cl        51.127451      45.986218      45.165450
Cl        51.813725      44.741315      44.034038
Cl        52.500000      45.361278      45.932458
Cl        53.186275      44.603438      44.081992
Cl        53.872549      45.158660      44.012667
Cl        54.558824      45.436904      44.100492
Cl        55.245098      44.746019      45.967209
Cl        55.931373      44.088111      45.410437
Cl        56.617647      44.710376      45.957141
Cl        57.303922      45.862045      45.506832
Cl        57.990196      44.065685      44.643551
Cl        58.676471      44.015564      44.824258
Cl        59.362745      44.347809      44.241945
Cl        60.049020      44.466521      45.845813
Cl        60.735294      44.222607      44.370985
Cl        61.421569      45.994497      44.895234
Cl        62.107843      44.431554      45.822721
Cl        62.794118      45.027032      44.000365
Cl        63.480392      45.590703      44.193111
Cl        64.166667      44.557508      45.896773
Cl        64.852941      44.229319      45.637221
Cl        65.539216      45.740200      45.672387
Cl        66.225490      44.311301      44.274953
Cl        66.911765      45.977013      44.786819
Cl        67.598039      44.584895      44.090227
Cl        68.284314      44.015261      44.825965
Cl        68.970588      44.009466      44.862731
Cl        69.800000      45.000000      45.000000
 
